Results/1rd_myc/from_terminal_0/network_debug.txt
Pandapower Network Debug Info
==================================================

BUS:
          name  vn_kv type  zone  in_service   geo
0        Bus 8    0.4    b  None        True  None
1        Bus 9    0.4    b  None        True  None
2       Bus 10    0.4    b  None        True  None
3       Bus 11    0.4    b  None        True  None
4       Bus 16    0.4    b  None        True  None
5       Bus 17    0.4    b  None        True  None
6       Bus 18    0.4    b  None        True  None
7       Bus 19    0.4    b  None        True  None
8       Bus 20    0.4    b  None        True  None
9       Bus 21   15.0    b  None        True  None
10      Bus 22   15.0    b  None        True  None
11      Bus 23   15.0    b  None        True  None
12      Bus 24   15.0    b  None        True  None
13      Bus 25   15.0    b  None        True  None
14      Bus 26   15.0    b  None        True  None
15    Sub MV 2   15.0    b  None        True  None
16    Sub LV 2    0.4    b  None        True  None
17    Sub MV 5   15.0    b  None        True  None
18    Sub LV 5    0.4    b  None        True  None
19  Slack HV 0   70.0    b  None        True  None
20  Slack MV 0   15.0    b  None        True  None
21  Slack HV 1   70.0    b  None        True  None
22  Slack MV 1   15.0    b  None        True  None
--------------------------------------------------

LOAD:
            name  bus      p_mw        q_mvar  const_z_percent  const_i_percent  sn_mva  scaling  in_service type
0      Load 8 T1    0  0.001102  2.308423e-04              0.0              0.0     NaN      1.0        True  wye
1      Load 8 T2    0  0.000804  2.195878e-04              0.0              0.0     NaN      1.0        True  wye
2      Load 8 T3    0  0.000862  2.149747e-04              0.0              0.0     NaN      1.0        True  wye
3      Load 8 T4    0  0.000807  1.966855e-04              0.0              0.0     NaN      1.0        True  wye
4      Load 8 T5    0  0.000848  2.287367e-04              0.0              0.0     NaN      1.0        True  wye
5      Load 8 T6    0  0.000892  1.824428e-04              0.0              0.0     NaN      1.0        True  wye
6      Load 8 T7    0  0.001130  2.247483e-04              0.0              0.0     NaN      1.0        True  wye
7      Load 8 T8    0  0.000994  1.915291e-04              0.0              0.0     NaN      1.0        True  wye
8      Load 8 T9    0  0.001173  1.915596e-04              0.0              0.0     NaN      1.0        True  wye
9     Load 8 T10    0  0.001018  2.288075e-04              0.0              0.0     NaN      1.0        True  wye
10    Load 8 T11    0  0.001140  1.674771e-04              0.0              0.0     NaN      1.0        True  wye
11    Load 8 T12    0  0.000897  1.816825e-04              0.0              0.0     NaN      1.0        True  wye
12    Load 8 T13    0  0.001192  1.874734e-04              0.0              0.0     NaN      1.0        True  wye
13    Load 8 T14    0  0.000859  1.853432e-04              0.0              0.0     NaN      1.0        True  wye
14    Load 8 T15    0  0.000942  1.941986e-04              0.0              0.0     NaN      1.0        True  wye
15    Load 8 T16    0  0.001149  2.216322e-04              0.0              0.0     NaN      1.0        True  wye
16    Load 8 T17    0  0.000986  2.118352e-04              0.0              0.0     NaN      1.0        True  wye
17    Load 8 T18    0  0.000892  2.156223e-04              0.0              0.0     NaN      1.0        True  wye
18    Load 8 T19    0  0.000845  2.145230e-04              0.0              0.0     NaN      1.0        True  wye
19    Load 8 T20    0  0.000970  1.906379e-04              0.0              0.0     NaN      1.0        True  wye
20    Load 8 T21    0  0.000957  1.776169e-04              0.0              0.0     NaN      1.0        True  wye
21    Load 8 T22    0  0.001007  1.827842e-04              0.0              0.0     NaN      1.0        True  wye
22    Load 8 T23    0  0.001169  1.873325e-04              0.0              0.0     NaN      1.0        True  wye
23    Load 8 T24    0  0.001035  2.122735e-04              0.0              0.0     NaN      1.0        True  wye
24     Load 9 T1    1  0.001664  4.379313e-04              0.0              0.0     NaN      1.0        True  wye
25     Load 9 T2    1  0.001438  4.474044e-04              0.0              0.0     NaN      1.0        True  wye
26     Load 9 T3    1  0.001310  4.469552e-04              0.0              0.0     NaN      1.0        True  wye
27     Load 9 T4    1  0.001406  4.516766e-04              0.0              0.0     NaN      1.0        True  wye
28     Load 9 T5    1  0.001464  3.102489e-04              0.0              0.0     NaN      1.0        True  wye
29     Load 9 T6    1  0.001462  3.929451e-04              0.0              0.0     NaN      1.0        True  wye
30     Load 9 T7    1  0.001232  3.737781e-04              0.0              0.0     NaN      1.0        True  wye
31     Load 9 T8    1  0.001470  3.065781e-04              0.0              0.0     NaN      1.0        True  wye
32     Load 9 T9    1  0.001405  3.806733e-04              0.0              0.0     NaN      1.0        True  wye
33    Load 9 T10    1  0.001671  3.679903e-04              0.0              0.0     NaN      1.0        True  wye
34    Load 9 T11    1  0.001784  3.278100e-04              0.0              0.0     NaN      1.0        True  wye
35    Load 9 T12    1  0.001219  4.149319e-04              0.0              0.0     NaN      1.0        True  wye
36    Load 9 T13    1  0.001436  3.842025e-04              0.0              0.0     NaN      1.0        True  wye
37    Load 9 T14    1  0.001252  3.773799e-04              0.0              0.0     NaN      1.0        True  wye
38    Load 9 T15    1  0.001619  4.322455e-04              0.0              0.0     NaN      1.0        True  wye
39    Load 9 T16    1  0.001258  3.586356e-04              0.0              0.0     NaN      1.0        True  wye
40    Load 9 T17    1  0.001418  4.069836e-04              0.0              0.0     NaN      1.0        True  wye
41    Load 9 T18    1  0.001354  3.299122e-04              0.0              0.0     NaN      1.0        True  wye
42    Load 9 T19    1  0.001471  4.445350e-04              0.0              0.0     NaN      1.0        True  wye
43    Load 9 T20    1  0.001549  3.584021e-04              0.0              0.0     NaN      1.0        True  wye
44    Load 9 T21    1  0.001207  3.388465e-04              0.0              0.0     NaN      1.0        True  wye
45    Load 9 T22    1  0.001451  3.273929e-04              0.0              0.0     NaN      1.0        True  wye
46    Load 9 T23    1  0.001299  3.224255e-04              0.0              0.0     NaN      1.0        True  wye
47    Load 9 T24    1  0.001353  3.937096e-04              0.0              0.0     NaN      1.0        True  wye
48    Load 10 T1    2 -0.001572 -4.424961e-04              0.0              0.0     NaN      1.0        True  wye
49    Load 10 T2    2 -0.001444 -4.516991e-04              0.0              0.0     NaN      1.0        True  wye
50    Load 10 T3    2 -0.001315 -4.509570e-04              0.0              0.0     NaN      1.0        True  wye
51    Load 10 T4    2 -0.001323 -4.557071e-04              0.0              0.0     NaN      1.0        True  wye
52    Load 10 T5    2 -0.001470 -3.142904e-04              0.0              0.0     NaN      1.0        True  wye
53    Load 10 T6    2 -0.001467 -3.971686e-04              0.0              0.0     NaN      1.0        True  wye
54    Load 10 T7    2 -0.001236 -3.774347e-04              0.0              0.0     NaN      1.0        True  wye
55    Load 10 T8    2 -0.001281 -3.101828e-04              0.0              0.0     NaN      1.0        True  wye
56    Load 10 T9    2 -0.001411 -3.847411e-04              0.0              0.0     NaN      1.0        True  wye
57   Load 10 T10    2 -0.001677 -3.726350e-04              0.0              0.0     NaN      1.0        True  wye
58   Load 10 T11    2 -0.001655 -3.323134e-04              0.0              0.0     NaN      1.0        True  wye
59   Load 10 T12    2 -0.001140 -4.184630e-04              0.0              0.0     NaN      1.0        True  wye
60   Load 10 T13    2 -0.001442 -3.883487e-04              0.0              0.0     NaN      1.0        True  wye
61   Load 10 T14    2 -0.001185 -3.809276e-04              0.0              0.0     NaN      1.0        True  wye
62   Load 10 T15    2 -0.001625 -4.369181e-04              0.0              0.0     NaN      1.0        True  wye
63   Load 10 T16    2 -0.001274 -3.624548e-04              0.0              0.0     NaN      1.0        True  wye
64   Load 10 T17    2 -0.001423 -4.111391e-04              0.0              0.0     NaN      1.0        True  wye
65   Load 10 T18    2 -0.001302 -3.336180e-04              0.0              0.0     NaN      1.0        True  wye
66   Load 10 T19    2 -0.001091 -4.480216e-04              0.0              0.0     NaN      1.0        True  wye
67   Load 10 T20    2 -0.001555 -3.627462e-04              0.0              0.0     NaN      1.0        True  wye
68   Load 10 T21    2 -0.001212 -3.423673e-04              0.0              0.0     NaN      1.0        True  wye
69   Load 10 T22    2 -0.001457 -3.314441e-04              0.0              0.0     NaN      1.0        True  wye
70   Load 10 T23    2 -0.001304 -3.101041e-04              0.0              0.0     NaN      1.0        True  wye
71   Load 10 T24    2 -0.001358 -3.976876e-04              0.0              0.0     NaN      1.0        True  wye
72    Load 11 T1    3 -0.001202 -2.333881e-04              0.0              0.0     NaN      1.0        True  wye
73    Load 11 T2    3 -0.000807 -2.213068e-04              0.0              0.0     NaN      1.0        True  wye
74    Load 11 T3    3 -0.000864 -2.167828e-04              0.0              0.0     NaN      1.0        True  wye
75    Load 11 T4    3 -0.000898 -1.986505e-04              0.0              0.0     NaN      1.0        True  wye
76    Load 11 T5    3 -0.000851 -2.305448e-04              0.0              0.0     NaN      1.0        True  wye
77    Load 11 T6    3 -0.000894 -1.842462e-04              0.0              0.0     NaN      1.0        True  wye
78    Load 11 T7    3 -0.001133 -2.270226e-04              0.0              0.0     NaN      1.0        True  wye
79    Load 11 T8    3 -0.001192 -1.941110e-04              0.0              0.0     NaN      1.0        True  wye
80    Load 11 T9    3 -0.001176 -1.938504e-04              0.0              0.0     NaN      1.0        True  wye
81   Load 11 T10    3 -0.001020 -2.309001e-04              0.0              0.0     NaN      1.0        True  wye
82   Load 11 T11    3 -0.001277 -1.700963e-04              0.0              0.0     NaN      1.0        True  wye
83   Load 11 T12    3 -0.000983 -1.837572e-04              0.0              0.0     NaN      1.0        True  wye
84   Load 11 T13    3 -0.001195 -1.897896e-04              0.0              0.0     NaN      1.0        True  wye
85   Load 11 T14    3 -0.000934 -1.873246e-04              0.0              0.0     NaN      1.0        True  wye
86   Load 11 T15    3 -0.000944 -1.961052e-04              0.0              0.0     NaN      1.0        True  wye
87   Load 11 T16    3 -0.001141 -2.238194e-04              0.0              0.0     NaN      1.0        True  wye
88   Load 11 T17    3 -0.000988 -2.138459e-04              0.0              0.0     NaN      1.0        True  wye
89   Load 11 T18    3 -0.000951 -2.176606e-04              0.0              0.0     NaN      1.0        True  wye
90   Load 11 T19    3 -0.001234 -2.175194e-04              0.0              0.0     NaN      1.0        True  wye
91   Load 11 T20    3 -0.000972 -1.925860e-04              0.0              0.0     NaN      1.0        True  wye
92   Load 11 T21    3 -0.000959 -1.795208e-04              0.0              0.0     NaN      1.0        True  wye
93   Load 11 T22    3 -0.001009 -1.847812e-04              0.0              0.0     NaN      1.0        True  wye
94   Load 11 T23    3 -0.001172 -2.056364e-04              0.0              0.0     NaN      1.0        True  wye
95   Load 11 T24    3 -0.001038 -2.143677e-04              0.0              0.0     NaN      1.0        True  wye
96    Load 16 T1    4  0.002636 -3.509323e-04              0.0              0.0     NaN      1.0        True  wye
97    Load 16 T2    4  0.003238 -4.900165e-04              0.0              0.0     NaN      1.0        True  wye
98    Load 16 T3    4  0.002830 -3.701865e-04              0.0              0.0     NaN      1.0        True  wye
99    Load 16 T4    4  0.002877 -4.473129e-04              0.0              0.0     NaN      1.0        True  wye
100   Load 16 T5    4  0.002793 -4.882059e-04              0.0              0.0     NaN      1.0        True  wye
101   Load 16 T6    4  0.003099 -5.066649e-04              0.0              0.0     NaN      1.0        True  wye
102   Load 16 T7    4  0.003136 -5.019052e-04              0.0              0.0     NaN      1.0        True  wye
103   Load 16 T8    4  0.002239 -4.579192e-04              0.0              0.0     NaN      1.0        True  wye
104   Load 16 T9    4  0.002351 -3.746400e-04              0.0              0.0     NaN      1.0        True  wye
105  Load 16 T10    4  0.002118 -3.897200e-04              0.0              0.0     NaN      1.0        True  wye
106  Load 16 T11    4  0.001012 -4.555398e-04              0.0              0.0     NaN      1.0        True  wye
107  Load 16 T12    4  0.001406 -4.987798e-04              0.0              0.0     NaN      1.0        True  wye
108  Load 16 T13    4  0.001576 -3.776384e-04              0.0              0.0     NaN      1.0        True  wye
109  Load 16 T14    4  0.001184 -4.448672e-04              0.0              0.0     NaN      1.0        True  wye
110  Load 16 T15    4  0.001700 -4.956152e-04              0.0              0.0     NaN      1.0        True  wye
111  Load 16 T16    4  0.001930 -3.698624e-04              0.0              0.0     NaN      1.0        True  wye
112  Load 16 T17    4  0.002951 -4.653292e-04              0.0              0.0     NaN      1.0        True  wye
113  Load 16 T18    4  0.002775 -3.600105e-04              0.0              0.0     NaN      1.0        True  wye
114  Load 16 T19    4  0.003093 -3.643476e-04              0.0              0.0     NaN      1.0        True  wye
115  Load 16 T20    4  0.003182 -3.803507e-04              0.0              0.0     NaN      1.0        True  wye
116  Load 16 T21    4  0.002498 -4.369916e-04              0.0              0.0     NaN      1.0        True  wye
117  Load 16 T22    4  0.002609 -3.567940e-04              0.0              0.0     NaN      1.0        True  wye
118  Load 16 T23    4  0.002850 -4.801289e-04              0.0              0.0     NaN      1.0        True  wye
119  Load 16 T24    4  0.003585 -4.182694e-04              0.0              0.0     NaN      1.0        True  wye
120   Load 17 T1    5 -0.000614  3.494928e-04              0.0              0.0     NaN      1.0        True  wye
121   Load 17 T2    5 -0.001282  5.976985e-04              0.0              0.0     NaN      1.0        True  wye
122   Load 17 T3    5 -0.000459  3.019726e-04              0.0              0.0     NaN      1.0        True  wye
123   Load 17 T4    5 -0.000365  5.608376e-04              0.0              0.0     NaN      1.0        True  wye
124   Load 17 T5    5 -0.001011  5.125691e-04              0.0              0.0     NaN      1.0        True  wye
125   Load 17 T6    5 -0.001210  5.291015e-04              0.0              0.0     NaN      1.0        True  wye
126   Load 17 T7    5 -0.001035  4.315274e-04              0.0              0.0     NaN      1.0        True  wye
127   Load 17 T8    5 -0.000293  5.790629e-04              0.0              0.0     NaN      1.0        True  wye
128   Load 17 T9    5 -0.000257  3.193683e-04              0.0              0.0     NaN      1.0        True  wye
129  Load 17 T10    5 -0.000454  3.095700e-04              0.0              0.0     NaN      1.0        True  wye
130  Load 17 T11    5 -0.000241  5.477280e-04              0.0              0.0     NaN      1.0        True  wye
131  Load 17 T12    5 -0.000197  5.375478e-04              0.0              0.0     NaN      1.0        True  wye
132  Load 17 T13    5 -0.000365  4.144478e-04              0.0              0.0     NaN      1.0        True  wye
133  Load 17 T14    5 -0.000389  4.621323e-04              0.0              0.0     NaN      1.0        True  wye
134  Load 17 T15    5 -0.000551  5.767493e-04              0.0              0.0     NaN      1.0        True  wye
135  Load 17 T16    5 -0.000366  3.669830e-04              0.0              0.0     NaN      1.0        True  wye
136  Load 17 T17    5 -0.001172  3.135050e-04              0.0              0.0     NaN      1.0        True  wye
137  Load 17 T18    5 -0.000730  3.888614e-04              0.0              0.0     NaN      1.0        True  wye
138  Load 17 T19    5 -0.000339  1.305523e-04              0.0              0.0     NaN      1.0        True  wye
139  Load 17 T20    5 -0.000446  2.862782e-04              0.0              0.0     NaN      1.0        True  wye
140  Load 17 T21    5 -0.001125  4.389759e-04              0.0              0.0     NaN      1.0        True  wye
141  Load 17 T22    5 -0.001518  3.135310e-04              0.0              0.0     NaN      1.0        True  wye
142  Load 17 T23    5 -0.001353  4.230226e-04              0.0              0.0     NaN      1.0        True  wye
143  Load 17 T24    5 -0.000445  3.594102e-04              0.0              0.0     NaN      1.0        True  wye
144   Load 18 T1    6 -0.002615  0.000000e+00              0.0              0.0     NaN      1.0        True  wye
145   Load 18 T2    6 -0.001945  0.000000e+00              0.0              0.0     NaN      1.0        True  wye
146   Load 18 T3    6 -0.002622  0.000000e+00              0.0              0.0     NaN      1.0        True  wye
147   Load 18 T4    6 -0.002864  0.000000e+00              0.0              0.0     NaN      1.0        True  wye
148   Load 18 T5    6 -0.002217  0.000000e+00              0.0              0.0     NaN      1.0        True  wye
149   Load 18 T6    6 -0.002269  0.000000e+00              0.0              0.0     NaN      1.0        True  wye
150   Load 18 T7    6 -0.002192  0.000000e+00              0.0              0.0     NaN      1.0        True  wye
151   Load 18 T8    6 -0.002634  0.000000e+00              0.0              0.0     NaN      1.0        True  wye
152   Load 18 T9    6 -0.002973  0.000000e+00              0.0              0.0     NaN      1.0        True  wye
153  Load 18 T10    6 -0.002622  6.385409e-16              0.0              0.0     NaN      1.0        True  wye
154  Load 18 T11    6 -0.002989  0.000000e+00              0.0              0.0     NaN      1.0        True  wye
155  Load 18 T12    6 -0.003033  0.000000e+00              0.0              0.0     NaN      1.0        True  wye
156  Load 18 T13    6 -0.002865  0.000000e+00              0.0              0.0     NaN      1.0        True  wye
157  Load 18 T14    6 -0.002840  0.000000e+00              0.0              0.0     NaN      1.0        True  wye
158  Load 18 T15    6 -0.002678  0.000000e+00              0.0              0.0     NaN      1.0        True  wye
159  Load 18 T16    6 -0.002864  3.043898e-16              0.0              0.0     NaN      1.0        True  wye
160  Load 18 T17    6 -0.002054  0.000000e+00              0.0              0.0     NaN      1.0        True  wye
161  Load 18 T18    6 -0.002498  0.000000e+00              0.0              0.0     NaN      1.0        True  wye
162  Load 18 T19    6 -0.002641  0.000000e+00              0.0              0.0     NaN      1.0        True  wye
163  Load 18 T20    6 -0.002738  0.000000e+00              0.0              0.0     NaN      1.0        True  wye
164  Load 18 T21    6 -0.002102  3.033056e-16              0.0              0.0     NaN      1.0        True  wye
165  Load 18 T22    6 -0.001707  0.000000e+00              0.0              0.0     NaN      1.0        True  wye
166  Load 18 T23    6 -0.001950  0.000000e+00              0.0              0.0     NaN      1.0        True  wye
167  Load 18 T24    6 -0.002856  0.000000e+00              0.0              0.0     NaN      1.0        True  wye
168   Load 19 T1    7 -0.001234  4.603486e-04              0.0              0.0     NaN      1.0        True  wye
169   Load 19 T2    7 -0.001839  4.274013e-04              0.0              0.0     NaN      1.0        True  wye
170   Load 19 T3    7 -0.001988  5.402645e-04              0.0              0.0     NaN      1.0        True  wye
171   Load 19 T4    7 -0.001978  4.460173e-04              0.0              0.0     NaN      1.0        True  wye
172   Load 19 T5    7 -0.001597  4.396179e-04              0.0              0.0     NaN      1.0        True  wye
173   Load 19 T6    7 -0.002147  5.074217e-04              0.0              0.0     NaN      1.0        True  wye
174   Load 19 T7    7 -0.002091  6.082448e-04              0.0              0.0     NaN      1.0        True  wye
175   Load 19 T8    7 -0.001561  4.620200e-04              0.0              0.0     NaN      1.0        True  wye
176   Load 19 T9    7 -0.001541  5.972251e-04              0.0              0.0     NaN      1.0        True  wye
177  Load 19 T10    7 -0.000871  5.582373e-04              0.0              0.0     NaN      1.0        True  wye
178  Load 19 T11    7 -0.000085  4.754855e-04              0.0              0.0     NaN      1.0        True  wye
179  Load 19 T12    7 -0.000345  4.704833e-04              0.0              0.0     NaN      1.0        True  wye
180  Load 19 T13    7 -0.000656  5.278709e-04              0.0              0.0     NaN      1.0        True  wye
181  Load 19 T14    7 -0.000049  5.602232e-04              0.0              0.0     NaN      1.0        True  wye
182  Load 19 T15    7 -0.000784  4.495284e-04              0.0              0.0     NaN      1.0        True  wye
183  Load 19 T16    7 -0.000494  4.628510e-04              0.0              0.0     NaN      1.0        True  wye
184  Load 19 T17    7 -0.002036  5.914104e-04              0.0              0.0     NaN      1.0        True  wye
185  Load 19 T18    7 -0.002045  5.045712e-04              0.0              0.0     NaN      1.0        True  wye
186  Load 19 T19    7 -0.002059  6.216750e-04              0.0              0.0     NaN      1.0        True  wye
187  Load 19 T20    7 -0.001856  6.013901e-04              0.0              0.0     NaN      1.0        True  wye
188  Load 19 T21    7 -0.001129  4.534510e-04              0.0              0.0     NaN      1.0        True  wye
189  Load 19 T22    7 -0.001761  5.875178e-04              0.0              0.0     NaN      1.0        True  wye
190  Load 19 T23    7 -0.002199  5.265938e-04              0.0              0.0     NaN      1.0        True  wye
191  Load 19 T24    7 -0.002500  4.844928e-04              0.0              0.0     NaN      1.0        True  wye
192   Load 20 T1    8  0.001790 -4.870322e-04              0.0              0.0     NaN      1.0        True  wye
193   Load 20 T2    8  0.001787 -5.666995e-04              0.0              0.0     NaN      1.0        True  wye
194   Load 20 T3    8  0.002199 -5.027473e-04              0.0              0.0     NaN      1.0        True  wye
195   Load 20 T4    8  0.002290 -5.920315e-04              0.0              0.0     NaN      1.0        True  wye
196   Load 20 T5    8  0.001994 -4.936089e-04              0.0              0.0     NaN      1.0        True  wye
197   Load 20 T6    8  0.002482 -5.644462e-04              0.0              0.0     NaN      1.0        True  wye
198   Load 20 T7    8  0.002141 -5.702309e-04              0.0              0.0     NaN      1.0        True  wye
199   Load 20 T8    8  0.002213 -6.109930e-04              0.0              0.0     NaN      1.0        True  wye
...

EXT_GRID:
        name  bus  vm_pu  va_degree  slack_weight  in_service
0  ExtGrid 0   19    1.0        0.0           1.0        True
1  ExtGrid 1   21    1.0        0.0           1.0        True
--------------------------------------------------

LINE:
       name std_type  from_bus  to_bus  length_km  r_ohm_per_km  x_ohm_per_km  c_nf_per_km  g_us_per_km  max_i_ka   df  parallel  type  in_service   geo
0    Line 0     None        20      15   0.400000        0.5502         0.429          0.0          0.0      0.23  1.0         1  None        True  None
1    Line 7     None        22      17   1.100000        0.5502         0.429          0.0          0.0      0.23  1.0         1  None        True  None
2    Line 8     None        15       9   0.316228        0.5502         0.429          0.0          0.0      0.23  1.0         1  None        True  None
3   Line 17     None        17      12   0.141421        0.5502         0.429          0.0          0.0      0.23  1.0         1  None        True  None
4   Line 18     None        17      13   0.223607        0.5502         0.429          0.0          0.0      0.23  1.0         1  None        True  None
5   Line 20     None        16       0   0.136015        0.5502         0.429          0.0          0.0      0.23  1.0         1  None        True  None
6   Line 34     None        18       5   0.225610        0.5502         0.429          0.0          0.0      0.23  1.0         1  None        True  None
7   Line 36     None        18       7   0.196469        0.5502         0.429          0.0          0.0      0.23  1.0         1  None        True  None
8   Line 37     None        18       8   0.050000        0.5502         0.429          0.0          0.0      0.23  1.0         1  None        True  None
9   Line 38     None        10       9   0.141421        0.5502         0.429          0.0          0.0      0.23  1.0         1  None        True  None
10  Line 40     None        11      10   0.200000        0.5502         0.429          0.0          0.0      0.23  1.0         1  None        True  None
11  Line 43     None        14      13   0.200000        0.5502         0.429          0.0          0.0      0.23  1.0         1  None        True  None
12  Line 44     None         1       0   0.172047        0.5502         0.429          0.0          0.0      0.23  1.0         1  None        True  None
13  Line 46     None         3       0   0.194165        0.5502         0.429          0.0          0.0      0.23  1.0         1  None        True  None
14  Line 47     None         2       1   0.263059        0.5502         0.429          0.0          0.0      0.23  1.0         1  None        True  None
15  Line 52     None         8       4   0.353836        0.5502         0.429          0.0          0.0      0.23  1.0         1  None        True  None
16  Line 53     None         6       5   0.253180        0.5502         0.429          0.0          0.0      0.23  1.0         1  None        True  None
--------------------------------------------------

TRAFO:
                  name std_type  hv_bus  lv_bus  sn_mva  vn_hv_kv  vn_lv_kv  vk_percent  vkr_percent  pfe_kw  i0_percent  shift_degree tap_side  tap_neutral  tap_min  tap_max  tap_step_percent  tap_step_degree  tap_pos tap_changer_type  id_characteristic_table  tap_dependency_table  parallel   df  in_service
0  MV/LV Transformer 2     None      15      16    10.0      15.0       0.4        0.01         0.01    0.01        0.01           0.0     None          NaN      NaN      NaN               NaN              NaN      NaN              NaN                     <NA>                 False         1  1.0        True
1  MV/LV Transformer 5     None      17      18    10.0      15.0       0.4        0.01         0.01    0.01        0.01           0.0     None          NaN      NaN      NaN               NaN              NaN      NaN              NaN                     <NA>                 False         1  1.0        True
2  Slack Transformer 0     None      19      20    40.0      70.0      15.0        0.01         0.01    0.01        0.01           0.0     None          NaN      NaN      NaN               NaN              NaN      NaN              NaN                     <NA>                 False         1  1.0        True
3  Slack Transformer 1     None      21      22    40.0      70.0      15.0        0.01         0.01    0.01        0.01           0.0     None          NaN      NaN      NaN               NaN              NaN      NaN              NaN                     <NA>                 False         1  1.0        True
--------------------------------------------------

RES_BUS:
       vm_pu     va_degree      p_mw        q_mvar
0   0.999972 -1.317880e-03  0.001035  2.122735e-04
1   0.999975 -1.317880e-03  0.001353  3.937096e-04
2   1.001482  3.290273e-02 -0.001358 -3.976876e-04
3   1.000776  2.142470e-02 -0.001038 -2.143677e-04
4   0.995043 -2.819997e-01  0.003585 -4.182694e-04
5   1.002239  1.264103e-01 -0.000445  3.594102e-04
6   1.004712  2.367260e-01 -0.002856  0.000000e+00
7   1.001342  9.040899e-02 -0.002500  4.844928e-04
8   0.999036 -5.661538e-02  0.002165 -4.647467e-04
9   0.999944 -2.404620e-03  0.008073 -1.625807e-06
10  0.999936 -2.765739e-03  0.009193  1.083931e-09
11  0.999929 -3.075574e-03  0.014179  0.000000e+00
12  0.999910 -3.784483e-03  0.006222  5.248901e-07
13  0.999898 -4.317342e-03  0.013593 -4.397562e-03
14  0.999890 -4.459649e-03  0.012148  4.394860e-03
15  0.999968 -1.318164e-03  0.000000  0.000000e+00
16  0.999968 -1.317880e-03  0.000000  0.000000e+00
17  0.999912 -3.688344e-03  0.000000  0.000000e+00
18  0.999912 -3.688061e-03  0.000000  0.000000e+00
19  1.000000  0.000000e+00 -0.031462 -4.995745e-03
20  1.000000  4.291097e-07  0.000000  0.000000e+00
21  1.000000  0.000000e+00 -0.031978 -4.993533e-03
22  1.000000  4.287929e-07  0.000000  0.000000e+00
--------------------------------------------------

RES_LINE:
    p_from_mw   q_from_mvar   p_to_mw     q_to_mvar         pl_mw       ql_mvar  i_from_ka   i_to_ka      i_ka  vm_from_pu  va_from_degree  vm_to_pu  va_to_degree  loading_percent
0    0.031452  9.957574e-04 -0.031451 -9.950022e-04  9.685388e-07  7.551856e-07   0.001211  0.001211  0.001211    1.000000    4.291097e-07  0.999968     -0.001318         0.526599
1    0.031968  9.935454e-04 -0.031965 -9.913999e-04  2.751614e-06  2.145479e-06   0.001231  0.001231  0.001231    1.000000    4.287929e-07  0.999912     -0.003688         0.535240
2    0.031446 -8.044932e-07 -0.031445  1.400742e-06  7.646997e-07  5.962489e-07   0.001210  0.001210  0.001210    0.999968   -1.318164e-03  0.999944     -0.002405         0.526256
3    0.006222  5.353319e-07 -0.006222 -5.248899e-07  1.339209e-08  1.044203e-08   0.000240  0.000240  0.000240    0.999912   -3.688344e-03  0.999910     -0.003784         0.104140
4    0.025741 -2.355477e-06 -0.025741  2.638032e-06  3.623818e-07  2.825551e-07   0.000991  0.000991  0.000991    0.999912   -3.688344e-03  0.999898     -0.004317         0.430816
5   -0.000005 -4.080092e-06  0.000005  4.080108e-06  2.059468e-11  1.605801e-11   0.000010  0.000010  0.000010    0.999968   -1.317880e-03  0.999972     -0.001318         0.004164
6   -0.003285  3.715089e-04  0.003294 -3.648954e-04  8.481848e-06  6.613436e-06   0.004772  0.004772  0.004772    0.999912   -3.688061e-03  1.002239      0.126410         2.074995
7   -0.002496  4.879001e-04  0.002500 -4.844928e-04  4.369907e-06  3.407289e-06   0.003671  0.003671  0.003671    0.999912   -3.688061e-03  1.001342      0.090409         1.596028
8    0.005773 -8.659627e-04 -0.005767  8.705314e-04  5.859473e-06  4.568727e-06   0.008426  0.008426  0.008426    0.999912   -3.688061e-03  0.999036     -0.056615         3.663494
9   -0.023372 -7.775867e-08  0.023372  2.250649e-07  1.889228e-07  1.473062e-07   0.000900  0.000900  0.000900    0.999936   -2.765739e-03  0.999944     -0.002405         0.391143
10  -0.014179  2.156016e-13  0.014179  7.667486e-08  9.833713e-08  7.667508e-08   0.000546  0.000546  0.000546    0.999929   -3.075574e-03  0.999936     -0.002766         0.237299
11  -0.012148 -4.394860e-03  0.012148  4.394924e-03  8.164229e-08  6.365784e-08   0.000497  0.000497  0.000497    0.999890   -4.459649e-03  0.999898     -0.004317         0.216219
12   0.000003  2.569742e-06 -0.000003 -2.569734e-06  1.033351e-11  8.057211e-12   0.000006  0.000006  0.000006    0.999975   -1.317880e-03  0.999972     -0.001318         0.002623
13   0.001038  2.143677e-04 -0.001037 -2.137838e-04  7.488386e-07  5.838818e-07   0.001529  0.001529  0.001529    1.000776    2.142470e-02  0.999972     -0.001318         0.664600
14   0.001358  3.976876e-04 -0.001356 -3.962794e-04  1.806084e-06  1.408234e-06   0.002039  0.002039  0.002039    1.001482    3.290273e-02  0.999975     -0.001318         0.886735
15   0.003601 -4.057847e-04 -0.003585  4.182696e-04  1.601207e-05  1.248487e-05   0.005236  0.005236  0.005236    0.999036   -5.661538e-02  0.995043     -0.282000         2.276533
16   0.002856  1.486455e-10 -0.002849  5.485204e-06  7.035060e-06  5.485352e-06   0.004103  0.004103  0.004103    1.004712    2.367260e-01  1.002239      0.126410         1.783901
--------------------------------------------------

RES_TRAFO:
    p_hv_mw  q_hv_mvar   p_lv_mw  q_lv_mvar    pl_mw  ql_mvar   i_hv_ka   i_lv_ka  vm_hv_pu  va_hv_degree  vm_lv_pu  va_lv_degree  loading_percent
0  0.000005   0.000996  0.000005   0.000004  0.00001    0.001  0.000038  0.000010  0.999968     -0.001318  0.999968 -1.317880e-03         0.009958
1  0.000002   0.000993  0.000008   0.000007  0.00001    0.001  0.000038  0.000015  0.999912     -0.003688  0.999912 -3.688061e-03         0.009933
2  0.031462   0.004996 -0.031452  -0.000996  0.00001    0.004  0.000263  0.001211  1.000000      0.000000  1.000000  4.291097e-07         0.079639
3  0.031978   0.004994 -0.031968  -0.000994  0.00001    0.004  0.000267  0.001231  1.000000      0.000000  1.000000  4.287929e-07         0.080914
--------------------------------------------------

RES_EXT_GRID:
       p_mw    q_mvar
0  0.031462  0.004996
1  0.031978  0.004994
--------------------------------------------------

RES_LOAD:
         p_mw        q_mvar
0    0.000000  0.000000e+00
1    0.000000  0.000000e+00
2    0.000000  0.000000e+00
3    0.000000  0.000000e+00
4    0.000000  0.000000e+00
5    0.000000  0.000000e+00
6    0.000000  0.000000e+00
7    0.000000  0.000000e+00
8    0.000000  0.000000e+00
9    0.000000  0.000000e+00
10   0.000000  0.000000e+00
11   0.000000  0.000000e+00
12   0.000000  0.000000e+00
13   0.000000  0.000000e+00
14   0.000000  0.000000e+00
15   0.000000  0.000000e+00
16   0.000000  0.000000e+00
17   0.000000  0.000000e+00
18   0.000000  0.000000e+00
19   0.000000  0.000000e+00
20   0.000000  0.000000e+00
21   0.000000  0.000000e+00
22   0.000000  0.000000e+00
23   0.001035  2.122735e-04
24   0.000000  0.000000e+00
25   0.000000  0.000000e+00
26   0.000000  0.000000e+00
27   0.000000  0.000000e+00
28   0.000000  0.000000e+00
29   0.000000  0.000000e+00
30   0.000000  0.000000e+00
31   0.000000  0.000000e+00
32   0.000000  0.000000e+00
33   0.000000  0.000000e+00
34   0.000000  0.000000e+00
35   0.000000  0.000000e+00
36   0.000000  0.000000e+00
37   0.000000  0.000000e+00
38   0.000000  0.000000e+00
39   0.000000  0.000000e+00
40   0.000000  0.000000e+00
41   0.000000  0.000000e+00
42   0.000000  0.000000e+00
43   0.000000  0.000000e+00
44   0.000000  0.000000e+00
45   0.000000  0.000000e+00
46   0.000000  0.000000e+00
47   0.001353  3.937096e-04
48  -0.000000 -0.000000e+00
49  -0.000000 -0.000000e+00
50  -0.000000 -0.000000e+00
51  -0.000000 -0.000000e+00
52  -0.000000 -0.000000e+00
53  -0.000000 -0.000000e+00
54  -0.000000 -0.000000e+00
55  -0.000000 -0.000000e+00
56  -0.000000 -0.000000e+00
57  -0.000000 -0.000000e+00
58  -0.000000 -0.000000e+00
59  -0.000000 -0.000000e+00
60  -0.000000 -0.000000e+00
61  -0.000000 -0.000000e+00
62  -0.000000 -0.000000e+00
63  -0.000000 -0.000000e+00
64  -0.000000 -0.000000e+00
65  -0.000000 -0.000000e+00
66  -0.000000 -0.000000e+00
67  -0.000000 -0.000000e+00
68  -0.000000 -0.000000e+00
69  -0.000000 -0.000000e+00
70  -0.000000 -0.000000e+00
71  -0.001358 -3.976876e-04
72  -0.000000 -0.000000e+00
73  -0.000000 -0.000000e+00
74  -0.000000 -0.000000e+00
75  -0.000000 -0.000000e+00
76  -0.000000 -0.000000e+00
77  -0.000000 -0.000000e+00
78  -0.000000 -0.000000e+00
79  -0.000000 -0.000000e+00
80  -0.000000 -0.000000e+00
81  -0.000000 -0.000000e+00
82  -0.000000 -0.000000e+00
83  -0.000000 -0.000000e+00
84  -0.000000 -0.000000e+00
85  -0.000000 -0.000000e+00
86  -0.000000 -0.000000e+00
87  -0.000000 -0.000000e+00
88  -0.000000 -0.000000e+00
89  -0.000000 -0.000000e+00
90  -0.000000 -0.000000e+00
91  -0.000000 -0.000000e+00
92  -0.000000 -0.000000e+00
93  -0.000000 -0.000000e+00
94  -0.000000 -0.000000e+00
95  -0.001038 -2.143677e-04
96   0.000000 -0.000000e+00
97   0.000000 -0.000000e+00
98   0.000000 -0.000000e+00
99   0.000000 -0.000000e+00
100  0.000000 -0.000000e+00
101  0.000000 -0.000000e+00
102  0.000000 -0.000000e+00
103  0.000000 -0.000000e+00
104  0.000000 -0.000000e+00
105  0.000000 -0.000000e+00
106  0.000000 -0.000000e+00
107  0.000000 -0.000000e+00
108  0.000000 -0.000000e+00
109  0.000000 -0.000000e+00
110  0.000000 -0.000000e+00
111  0.000000 -0.000000e+00
112  0.000000 -0.000000e+00
113  0.000000 -0.000000e+00
114  0.000000 -0.000000e+00
115  0.000000 -0.000000e+00
116  0.000000 -0.000000e+00
117  0.000000 -0.000000e+00
118  0.000000 -0.000000e+00
119  0.003585 -4.182694e-04
120 -0.000000  0.000000e+00
121 -0.000000  0.000000e+00
122 -0.000000  0.000000e+00
123 -0.000000  0.000000e+00
124 -0.000000  0.000000e+00
125 -0.000000  0.000000e+00
126 -0.000000  0.000000e+00
127 -0.000000  0.000000e+00
128 -0.000000  0.000000e+00
129 -0.000000  0.000000e+00
130 -0.000000  0.000000e+00
131 -0.000000  0.000000e+00
132 -0.000000  0.000000e+00
133 -0.000000  0.000000e+00
134 -0.000000  0.000000e+00
135 -0.000000  0.000000e+00
136 -0.000000  0.000000e+00
137 -0.000000  0.000000e+00
138 -0.000000  0.000000e+00
139 -0.000000  0.000000e+00
140 -0.000000  0.000000e+00
141 -0.000000  0.000000e+00
142 -0.000000  0.000000e+00
143 -0.000445  3.594102e-04
144 -0.000000  0.000000e+00
145 -0.000000  0.000000e+00
146 -0.000000  0.000000e+00
147 -0.000000  0.000000e+00
148 -0.000000  0.000000e+00
149 -0.000000  0.000000e+00
150 -0.000000  0.000000e+00
151 -0.000000  0.000000e+00
152 -0.000000  0.000000e+00
153 -0.000000  0.000000e+00
154 -0.000000  0.000000e+00
155 -0.000000  0.000000e+00
156 -0.000000  0.000000e+00
157 -0.000000  0.000000e+00
158 -0.000000  0.000000e+00
159 -0.000000  0.000000e+00
160 -0.000000  0.000000e+00
161 -0.000000  0.000000e+00
162 -0.000000  0.000000e+00
163 -0.000000  0.000000e+00
164 -0.000000  0.000000e+00
165 -0.000000  0.000000e+00
166 -0.000000  0.000000e+00
167 -0.002856  0.000000e+00
168 -0.000000  0.000000e+00
169 -0.000000  0.000000e+00
170 -0.000000  0.000000e+00
171 -0.000000  0.000000e+00
172 -0.000000  0.000000e+00
173 -0.000000  0.000000e+00
174 -0.000000  0.000000e+00
175 -0.000000  0.000000e+00
176 -0.000000  0.000000e+00
177 -0.000000  0.000000e+00
178 -0.000000  0.000000e+00
179 -0.000000  0.000000e+00
180 -0.000000  0.000000e+00
181 -0.000000  0.000000e+00
182 -0.000000  0.000000e+00
183 -0.000000  0.000000e+00
184 -0.000000  0.000000e+00
185 -0.000000  0.000000e+00
186 -0.000000  0.000000e+00
187 -0.000000  0.000000e+00
188 -0.000000  0.000000e+00
189 -0.000000  0.000000e+00
190 -0.000000  0.000000e+00
191 -0.002500  4.844928e-04
192  0.000000 -0.000000e+00
193  0.000000 -0.000000e+00
194  0.000000 -0.000000e+00
195  0.000000 -0.000000e+00
196  0.000000 -0.000000e+00
197  0.000000 -0.000000e+00
198  0.000000 -0.000000e+00
199  0.000000 -0.000000e+00
...

BUS_GEODATA:
        x      y
0    11.0   48.0
1    25.0   38.0
2    51.0   42.0
3     0.0   64.0
4   129.0  138.0
5   105.0   88.0
6   130.0   92.0
7    81.0  115.0
8   103.0  114.0
9    10.0   70.0
10   20.0   80.0
11   40.0   80.0
12   90.0  120.0
13  120.0  120.0
14  120.0  100.0
15    0.0   40.0
16    0.5   39.5
17  100.0  110.0
18  100.5  109.5
19    0.0    0.0
20    0.5   -0.5
21  100.0    0.0
22  100.5   -0.5
--------------------------------------------------
